/*--------------------------------*- C++ -*----------------------------------*\
| =========                 |                                                 |
| \\      /  F ield         | OpenFOAM: The Open Source CFD Toolbox           |
|  \\    /   O peration     | Version: 8                                      |
|   \\  /    A nd           |                                                 |
|    \\/     M anipulation  |                                                 |
\*---------------------------------------------------------------------------*/

FoamFile
{
    version     2.0;
    format      ascii;
    class       dictionary;
    object      blockMeshDict;
}

convertToMeters 1;

vertices
(
    (-2.25 -1.125 -1.125)
    ( 2.25 -1.125 -1.125)
    ( 2.25  1.125 -1.125)
    (-2.25  1.125 -1.125)
    (-2.25 -1.125  1.125)
    ( 2.25 -1.125  1.125)
    ( 2.25  1.125  1.125)
    (-2.25  1.125  1.125)
);

blocks
(
    hex (0 1 2 3 4 5 6 7) (60 30 30) simpleGrading (1 1 1)
);

edges
(
);

boundary
(
    inlet
    {
        type patch;
        faces
        (
            (0 4 7 3)
        );
    }
    outlet
    {
        type patch;
        faces
        (
            (1 2 6 5)
        );
    }
    top
    {
        type wall;
        faces
        (
            (3 2 6 7)
        );
    }
    bottom
    {
        type wall;
        faces
        (
            (0 1 5 4)
        );
    }
    sides
    {
        type wall;
        faces
        (
            (0 3 2 1)
            (4 5 6 7)
        );
    }
);

mergePatchPairs
(
);

// ************************************************************************* //
